Version 4
SHEET 1 2424 680
WIRE 432 -864 240 -864
WIRE 880 -864 432 -864
WIRE 976 -864 880 -864
WIRE 1376 -864 976 -864
WIRE 1472 -864 1376 -864
WIRE 240 -832 240 -864
WIRE 432 -832 432 -864
WIRE 880 -832 880 -864
WIRE 1472 -832 1472 -864
WIRE 336 -816 288 -816
WIRE 592 -816 480 -816
WIRE 832 -816 592 -816
WIRE 1520 -816 832 -816
WIRE 1936 -816 1872 -816
WIRE 2080 -816 2016 -816
WIRE 2160 -816 2080 -816
WIRE 2288 -816 2240 -816
WIRE 2080 -800 2080 -816
WIRE 880 -720 880 -736
WIRE 992 -720 880 -720
WIRE 1088 -720 992 -720
WIRE 1360 -720 1264 -720
WIRE 1472 -720 1472 -736
WIRE 1472 -720 1360 -720
WIRE 432 -688 432 -736
WIRE 880 -688 880 -720
WIRE 1472 -688 1472 -720
WIRE 2080 -688 2080 -720
WIRE 240 -672 240 -736
WIRE 336 -672 336 -816
WIRE 336 -672 240 -672
WIRE 480 -672 336 -672
WIRE 832 -672 480 -672
WIRE 1520 -672 832 -672
WIRE 2256 -624 2256 -656
WIRE 432 -560 432 -592
WIRE 592 -560 592 -816
WIRE 592 -560 432 -560
WIRE 880 -512 880 -592
WIRE 880 -512 736 -512
WIRE 1472 -512 1472 -592
WIRE 1600 -512 1472 -512
WIRE 1616 -512 1600 -512
WIRE 240 -496 240 -672
WIRE 432 -496 432 -560
WIRE 1088 -480 1088 -720
WIRE 1264 -480 1264 -720
WIRE 1040 -400 1008 -400
WIRE 1344 -400 1312 -400
WIRE 1184 -384 1088 -384
WIRE 1264 -384 1184 -384
WIRE 432 -336 432 -416
WIRE 560 -336 432 -336
WIRE 880 -336 880 -512
WIRE 1184 -336 1184 -384
WIRE 1472 -336 1472 -512
WIRE 240 -256 240 -416
WIRE 304 -256 240 -256
WIRE 480 -256 304 -256
WIRE 832 -256 480 -256
WIRE 1136 -256 832 -256
WIRE 1520 -256 1136 -256
WIRE 880 -208 880 -240
WIRE 912 -208 880 -208
WIRE 1184 -208 1184 -240
WIRE 1232 -208 1184 -208
WIRE 240 -192 240 -256
WIRE 432 -192 432 -240
WIRE 880 -192 880 -208
WIRE 1184 -192 1184 -208
WIRE 1472 -192 1472 -240
WIRE 304 -112 304 -256
WIRE 304 -112 288 -112
WIRE 560 -112 560 -336
WIRE 560 -112 480 -112
WIRE 832 -112 560 -112
WIRE 1008 -112 832 -112
WIRE 1136 -112 1008 -112
WIRE 1520 -112 1136 -112
WIRE 240 -80 240 -96
WIRE 432 -80 432 -96
WIRE 432 -80 240 -80
WIRE 880 -80 880 -96
WIRE 880 -80 432 -80
WIRE 1184 -80 1184 -96
WIRE 1184 -80 880 -80
WIRE 1472 -80 1472 -96
WIRE 1472 -80 1184 -80
WIRE 1184 -48 1184 -80
FLAG 1088 -432 0
FLAG 1184 -288 0
FLAG 1184 -144 0
FLAG 1184 -48 0
FLAG 880 -288 0
FLAG 880 -144 0
FLAG 2256 -544 0
FLAG 2256 -656 Vdd
FLAG 880 -864 Vdd
FLAG 880 -640 Vdd
FLAG 880 -784 Vdd
FLAG 1008 -320 0
FLAG 2288 -816 Vi_cm_fb
FLAG 1872 -816 Vp_cm_fb
FLAG 2080 -688 V_cm_fb
FLAG 736 -512 Vp_cm_fb
FLAG 1264 -432 0
FLAG 1472 -144 0
FLAG 1472 -864 Vdd
FLAG 1472 -640 Vdd
FLAG 1472 -784 Vdd
FLAG 1344 -320 0
FLAG 1616 -512 Vi_cm_fb
FLAG 432 -144 0
FLAG 240 -144 0
FLAG 432 -288 0
FLAG 1472 -288 0
FLAG 432 -784 Vdd
FLAG 432 -640 Vdd
FLAG 240 -784 Vdd
FLAG 1008 -112 V_cm_fb
FLAG 736 -448 0
FLAG 1600 -448 0
DATAFLAG 912 -208 "round($*10k)/10k"
DATAFLAG 1184 -384 "round($*10k)/10k"
DATAFLAG 1232 -208 "round($*10k)/10k"
DATAFLAG 992 -720 "round($*1k)/1k"
DATAFLAG 976 -864 "round($*1k)/1k"
DATAFLAG 880 -512 "round($*1k)/1k"
DATAFLAG 1360 -720 "round($*1k)/1k"
DATAFLAG 1376 -864 "round($*1k)/1k"
DATAFLAG 1472 -512 "round($*1k)/1k"
SYMBOL nmos4 1040 -480 R0
SYMATTR InstName M1
SYMATTR Value nch
SYMATTR Value2 l=1u w=19u m=12
SYMBOL nmos4 1136 -336 R0
SYMATTR InstName M3
SYMATTR Value nch
SYMATTR Value2 l=0.25u w=20u m=7
SYMBOL nmos4 1136 -192 R0
SYMATTR InstName M4
SYMATTR Value nch
SYMATTR Value2 l=0.5u w=20u m=14
SYMBOL pmos4 832 -592 M180
SYMATTR InstName M10
SYMATTR Value pch
SYMATTR Value2 l=1u w=17u m=27
SYMBOL nmos4 832 -336 R0
SYMATTR InstName M11
SYMATTR Value nch
SYMATTR Value2 l=0.5u w=20u m=7
SYMBOL nmos4 832 -192 R0
SYMATTR InstName M12
SYMATTR Value nch
SYMATTR Value2 l=0.5u w=20u m=7
SYMBOL voltage 2256 -640 R0
WINDOW 123 0 0 Left 2
WINDOW 39 0 0 Left 2
SYMATTR InstName V1
SYMATTR Value 1.8
SYMBOL pmos4 832 -736 M180
SYMATTR InstName M5
SYMATTR Value pch
SYMATTR Value2 l=1u w=17u m=54
SYMBOL voltage 1008 -416 M0
WINDOW 123 0 0 Left 2
WINDOW 39 0 0 Left 2
SYMATTR InstName V4
SYMATTR Value 0.9
SYMBOL res 2032 -832 R90
WINDOW 0 0 56 VBottom 2
WINDOW 3 32 56 VTop 2
SYMATTR InstName R1
SYMATTR Value 1Meg
SYMBOL res 2256 -832 R90
WINDOW 0 0 56 VBottom 2
WINDOW 3 32 56 VTop 2
SYMATTR InstName R2
SYMATTR Value 1Meg
SYMBOL voltage 2080 -816 R0
WINDOW 123 0 0 Left 2
WINDOW 39 0 0 Left 2
SYMATTR InstName V12
SYMATTR Value 0.3
SYMBOL nmos4 1312 -480 M0
SYMATTR InstName M2
SYMATTR Value nch
SYMATTR Value2 l=1u w=19u m=12
SYMBOL pmos4 1520 -592 R180
SYMATTR InstName M6
SYMATTR Value pch
SYMATTR Value2 l=1u w=17u m=27
SYMBOL nmos4 1520 -336 M0
SYMATTR InstName M7
SYMATTR Value nch
SYMATTR Value2 l=0.5u w=20u m=7
SYMBOL nmos4 1520 -192 M0
SYMATTR InstName M8
SYMATTR Value nch
SYMATTR Value2 l=0.5u w=20u m=7
SYMBOL pmos4 1520 -736 R180
SYMATTR InstName M9
SYMATTR Value pch
SYMATTR Value2 l=1u w=17u m=54
SYMBOL voltage 1344 -416 R0
WINDOW 123 0 0 Left 2
WINDOW 39 0 0 Left 2
SYMATTR InstName V2
SYMATTR Value 0.9
SYMBOL nmos4 480 -192 M0
SYMATTR InstName M13
SYMATTR Value nch
SYMATTR Value2 l=0.5u w=20u m=14
SYMBOL current 432 -496 R0
WINDOW 123 0 0 Left 2
WINDOW 39 0 0 Left 2
SYMATTR InstName I1
SYMATTR Value 2m
SYMBOL nmos4 480 -336 M0
SYMATTR InstName M14
SYMATTR Value nch
SYMATTR Value2 l=0.5u w=20u m=14
SYMBOL current 240 -496 R0
WINDOW 123 0 0 Left 2
WINDOW 39 0 0 Left 2
SYMATTR InstName I2
SYMATTR Value 8m
SYMBOL nmos4 288 -192 M0
SYMATTR InstName M15
SYMATTR Value nch
SYMATTR Value2 l=0.5u w=19u m=12
SYMBOL pmos4 480 -736 R180
SYMATTR InstName M16
SYMATTR Value pch
SYMATTR Value2 l=1u w=17u m=54
SYMBOL pmos4 480 -592 R180
SYMATTR InstName M17
SYMATTR Value pch
SYMATTR Value2 l=1u w=17u m=27
SYMBOL pmos4 288 -736 R180
SYMATTR InstName M18
SYMATTR Value pch
SYMATTR Value2 l=1u w=17u m=54
SYMBOL cap 720 -512 R0
SYMATTR InstName C1
SYMATTR Value 0.41p
SYMBOL cap 1584 -512 R0
SYMATTR InstName C2
SYMATTR Value 0.41p
TEXT -576 -800 Left 2 !.lib 'C:\\Program Files (x86)\\LTC\\LTspiceIV\\lib\\cmp\\log018.l' TT
TEXT -464 -520 Left 2 !;op
TEXT -464 -576 Left 2 !.param V_b4= 1.1 , V_b3 = 0.80 , V_b2 = 0.88, V_b1 = 0.60
TEXT -464 -544 Left 2 !.tran 10m
