Version 4
SHEET 1 1768 852
WIRE -272 -256 -480 -256
WIRE -256 -256 -272 -256
WIRE 16 -256 -256 -256
WIRE 304 -256 16 -256
WIRE 560 -256 304 -256
WIRE 912 -256 560 -256
WIRE 912 -192 912 -256
WIRE -256 -128 -256 -256
WIRE 16 -128 16 -256
WIRE 304 -128 304 -256
WIRE 560 -128 560 -256
WIRE 912 -128 912 -192
WIRE 16 -112 16 -128
WIRE 176 -48 64 -48
WIRE 256 -48 176 -48
WIRE 656 -48 608 -48
WIRE 864 -48 656 -48
WIRE 176 16 176 -48
WIRE 304 16 304 -32
WIRE 304 16 176 16
WIRE 560 16 560 -32
WIRE 656 16 656 -48
WIRE 656 16 560 16
WIRE 304 64 304 16
WIRE 560 64 560 16
WIRE 912 128 912 -32
WIRE 1008 128 912 128
WIRE 1024 128 1008 128
WIRE 256 144 160 144
WIRE 656 144 608 144
WIRE 304 192 304 160
WIRE 432 192 304 192
WIRE 560 192 560 160
WIRE 560 192 432 192
WIRE 432 256 432 192
WIRE 16 272 16 -16
WIRE 96 272 16 272
WIRE 16 304 16 272
WIRE 912 304 912 128
WIRE -256 384 -256 -48
WIRE -128 384 -256 384
WIRE 96 384 96 272
WIRE 96 384 64 384
WIRE 784 384 96 384
WIRE 864 384 784 384
WIRE -256 400 -256 384
WIRE 432 400 432 256
WIRE -128 480 -128 384
WIRE -128 480 -208 480
WIRE -80 480 -128 480
WIRE 176 480 -80 480
WIRE 384 480 176 480
WIRE -256 544 -256 496
WIRE -80 544 -256 544
WIRE 16 544 16 400
WIRE 16 544 -80 544
WIRE 432 544 432 496
WIRE 432 544 16 544
WIRE 912 544 912 400
WIRE 912 544 432 544
WIRE 432 592 432 544
FLAG -480 -176 0
FLAG -272 -256 Vdd
FLAG 432 592 0
FLAG 304 -80 Vdd
FLAG 560 -80 Vdd
FLAG 304 112 0
FLAG 560 112 0
FLAG 432 448 0
FLAG 160 224 0
FLAG 656 224 0
FLAG -256 448 0
FLAG 912 352 0
FLAG 912 -80 Vdd
FLAG 16 -80 Vdd
FLAG 16 352 0
DATAFLAG -80 480 "round($*10k)/10k"
DATAFLAG 1008 128 ""
DATAFLAG 432 192 ""
DATAFLAG 176 480 ""
DATAFLAG 784 384 ""
DATAFLAG 432 256 "round(Id(M5)*100000)/100000"
DATAFLAG 912 -192 "round(Id(M7)*100000)/100000"
SYMBOL Overige\ componenten\\voltage -480 -272 M0
WINDOW 123 0 0 Left 2
WINDOW 39 0 0 Left 2
SYMATTR InstName V1
SYMATTR Value 1.8V
SYMBOL Overige\ componenten\\pmos4 256 -128 R0
SYMATTR InstName M1
SYMATTR Value pch
SYMATTR Value2 l={Lp_GB} w={Wp_GB} m={Mp_GB}
SYMBOL Overige\ componenten\\pmos4 608 -128 M0
SYMATTR InstName M2
SYMATTR Value pch
SYMATTR Value2 l={Lp_GB} w={Wp_GB} m={Mp_GB}
SYMBOL nmos4 256 64 R0
SYMATTR InstName M3
SYMATTR Value nch
SYMATTR Value2 l={L_GB_in} w={W_GB_in} m={M_GB_in}
SYMBOL nmos4 608 64 M0
SYMATTR InstName M4
SYMATTR Value nch
SYMATTR Value2 l={L_GB_in} w={W_GB_in} m={M_GB_in}
SYMBOL nmos4 384 400 R0
SYMATTR InstName M5
SYMATTR Value nch
SYMATTR Value2 l={Ln_GB} w={Wn_GB} m={Mn_GB}
SYMBOL Overige\ componenten\\voltage 160 128 R0
WINDOW 3 24 44 Left 2
WINDOW 123 0 0 Left 2
WINDOW 39 0 0 Left 2
SYMATTR InstName V2
SYMATTR Value 0.9
SYMBOL Overige\ componenten\\voltage 656 128 R0
WINDOW 3 24 44 Left 2
WINDOW 123 0 0 Left 2
WINDOW 39 0 0 Left 2
SYMATTR InstName V3
SYMATTR Value 0.9
SYMBOL nmos4 -208 400 M0
WINDOW 3 59 75 Left 2
SYMATTR InstName M6
SYMATTR Value nch
SYMATTR Value2 l={Ln_GB} w={Wn_GB} m={Mn_GB}
SYMBOL current -256 -128 R0
WINDOW 123 0 0 Left 2
WINDOW 39 0 0 Left 2
SYMATTR InstName I1
SYMATTR Value 0.3m
SYMBOL cap -96 480 R0
SYMATTR InstName C1
SYMATTR Value 1000µ
SYMBOL Overige\ componenten\\pmos4 864 -128 R0
SYMATTR InstName M7
SYMATTR Value pch
SYMATTR Value2 l={Lp_GB} w={Wp_GB} m={Mp_GB}
SYMBOL nmos4 864 304 R0
SYMATTR InstName M8
SYMATTR Value nch
SYMATTR Value2 l={Ln_GB} w={Wn_GB} m={Mn_GB}
SYMBOL Overige\ componenten\\pmos4 64 -128 M0
SYMATTR InstName M9
SYMATTR Value pch
SYMATTR Value2 l={Lp_GB} w={Wp_GB} m={Mp_GB}
SYMBOL nmos4 64 304 M0
SYMATTR InstName M10
SYMATTR Value nch
SYMATTR Value2 l={Ln_GB} w={Wn_GB} m={Mn_GB}
TEXT -752 -384 Left 2 !.lib 'C:\\Program Files (x86)\\LTC\\LTspiceIV\\lib\\cmp\\log018.l' TT
TEXT -768 -352 Left 2 !.lib opamp.sub
TEXT -744 -304 Left 2 !;op
TEXT 528 424 Left 2 ;W/L n = 6.726
TEXT 1088 112 Left 2 !.param Wp_GB= 15.4u, Lp_GB= 0.36u , Mp_GB=1
TEXT 1088 160 Left 2 !.param Wn_GB= 2.422u , Ln_GB= 0.36u, Mn_GB=1
TEXT 1088 208 Left 2 !.param W_GB_in= 3u, L_GB_in=0.36u , M_GB_in=5
TEXT 1008 -128 Left 2 ;W/L p = 42.85
TEXT -770 520 Left 2 !.tran 10n
