Version 4
SHEET 1 1648 680
WIRE 448 -32 432 -32
WIRE 608 -32 448 -32
WIRE 432 32 432 -32
WIRE -288 64 -288 -32
WIRE 432 160 432 128
WIRE 432 272 432 256
WIRE 832 272 432 272
WIRE 432 304 432 272
WIRE 608 304 608 -32
WIRE 384 384 272 384
WIRE 704 384 656 384
WIRE 432 416 432 400
WIRE 528 416 432 416
WIRE 608 416 608 400
WIRE 608 416 528 416
WIRE 528 432 528 416
WIRE 528 544 528 528
FLAG -288 144 0
FLAG 528 544 0
FLAG -288 -32 Vdd
FLAG 448 -32 Vdd
FLAG 432 80 Vdd
FLAG 432 208 Vdd
FLAG 432 352 0
FLAG 608 352 Vdd
FLAG 528 480 0
FLAG 272 464 0
FLAG 704 464 0
SYMBOL Overige\ componenten\\voltage -288 48 R0
WINDOW 123 0 0 Left 2
WINDOW 39 0 0 Left 2
SYMATTR InstName V1
SYMATTR Value 1.8
SYMBOL nmos4 384 304 R0
SYMATTR InstName M1
SYMATTR Value nch
SYMBOL Overige\ componenten\\pmos4 656 304 M0
SYMATTR InstName M2
SYMBOL nmos4 480 432 R0
SYMATTR InstName M3
SYMBOL Overige\ componenten\\pmos4 384 160 R0
SYMATTR InstName M4
SYMATTR Value pch
SYMBOL Overige\ componenten\\pmos4 384 32 R0
SYMATTR InstName M5
SYMATTR Value pch
SYMBOL Overige\ componenten\\voltage 272 368 R0
WINDOW 123 0 0 Left 2
WINDOW 39 0 0 Left 2
SYMATTR InstName V3
SYMATTR Value 0.160
SYMBOL Overige\ componenten\\voltage 704 368 R0
WINDOW 123 0 0 Left 2
WINDOW 39 0 0 Left 2
SYMATTR InstName V2
SYMATTR Value 0.150
TEXT -536 -112 Left 2 !.lib 'C:\\Program Files (x86)\\LTC\\LTspiceIV\\lib\\cmp\\log018.l' TT
TEXT 992 64 Left 2 !.param Wp_GB= 15.4u, Lp_GB= 0.36u , Mp_GB=1
TEXT 992 112 Left 2 !.param Wn_GB= 2.422u , Ln_GB= 0.36u, Mn_GB=1
TEXT 992 160 Left 2 !.param W_GB_in= 3u, L_GB_in=0.36u , M_GB_in=5
