Version 4
SHEET 1 1004 832
WIRE -1168 -608 -1200 -608
WIRE -1136 -608 -1168 -608
WIRE -928 -608 -960 -608
WIRE -896 -608 -928 -608
WIRE -592 -608 -640 -608
WIRE -464 -608 -512 -608
WIRE 160 -608 112 -608
WIRE 288 -608 240 -608
WIRE -1168 -576 -1168 -608
WIRE -928 -576 -928 -608
WIRE -752 -528 -784 -528
WIRE -640 -528 -640 -608
WIRE -640 -528 -672 -528
WIRE -592 -528 -640 -528
WIRE -464 -528 -464 -608
WIRE -464 -528 -528 -528
WIRE -352 -528 -464 -528
WIRE 0 -528 -32 -528
WIRE 112 -528 112 -608
WIRE 112 -528 80 -528
WIRE 160 -528 112 -528
WIRE 288 -528 288 -608
WIRE 288 -528 224 -528
WIRE 400 -528 288 -528
WIRE -784 -432 -784 -528
WIRE -784 -432 -816 -432
WIRE -736 -432 -784 -432
WIRE -640 -432 -640 -528
WIRE -640 -432 -672 -432
WIRE -32 -432 -32 -528
WIRE 16 -432 -32 -432
WIRE 112 -432 112 -528
WIRE 112 -432 80 -432
WIRE -816 -400 -816 -432
WIRE -640 -352 -640 -432
WIRE -576 -352 -640 -352
WIRE -560 -352 -576 -352
WIRE -544 -352 -560 -352
WIRE -352 -352 -352 -528
WIRE -272 -352 -352 -352
WIRE -192 -352 -272 -352
WIRE 112 -352 112 -432
WIRE 192 -352 112 -352
WIRE 208 -352 192 -352
WIRE 400 -352 400 -528
WIRE 416 -352 400 -352
WIRE -960 -272 -1120 -272
WIRE -816 -272 -816 -320
WIRE -816 -272 -960 -272
WIRE -576 -256 -640 -256
WIRE -560 -256 -576 -256
WIRE -544 -256 -560 -256
WIRE -272 -256 -352 -256
WIRE -192 -256 -272 -256
WIRE 192 -256 112 -256
WIRE 208 -256 192 -256
WIRE 416 -256 400 -256
WIRE -1120 -240 -1120 -272
WIRE -816 -176 -816 -192
WIRE -784 -176 -816 -176
WIRE -752 -176 -784 -176
WIRE -640 -176 -640 -256
WIRE -640 -176 -688 -176
WIRE -16 -176 -32 -176
WIRE 0 -176 -16 -176
WIRE 112 -176 112 -256
WIRE 112 -176 64 -176
WIRE -784 -80 -784 -176
WIRE -768 -80 -784 -80
WIRE -640 -80 -640 -176
WIRE -640 -80 -688 -80
WIRE -592 -80 -640 -80
WIRE -464 -80 -528 -80
WIRE -352 -80 -352 -256
WIRE -352 -80 -464 -80
WIRE -32 -80 -32 -176
WIRE -16 -80 -32 -80
WIRE 112 -80 112 -176
WIRE 112 -80 64 -80
WIRE 160 -80 112 -80
WIRE 288 -80 224 -80
WIRE 400 -80 400 -256
WIRE 400 -80 288 -80
WIRE -640 0 -640 -80
WIRE -608 0 -640 0
WIRE -464 0 -464 -80
WIRE -464 0 -528 0
WIRE 112 0 112 -80
WIRE 144 0 112 0
WIRE 288 0 288 -80
WIRE 288 0 224 0
FLAG -1120 -160 0
FLAG -960 -272 V_cm
FLAG -192 -416 0
FLAG -192 -192 0
FLAG -928 -496 0
FLAG -928 -608 Vdd_amp
FLAG -496 -384 Vdd_amp
FLAG -272 -256 Vout_p
FLAG -272 -352 Vout_n
FLAG -1168 -496 0
FLAG -1168 -608 Vdd_bias
FLAG -464 -384 Vdd_bias
FLAG -576 -352 Vin_p
FLAG -576 -256 Vin_n
FLAG 256 -384 Vdd_amp
FLAG 192 -256 Vin_n
FLAG 192 -352 Vin_p
FLAG 288 -384 Vdd_bias
FLAG 416 -256 Vout_p
FLAG 416 -352 Vout_n
FLAG -32 -432 Vn_p
FLAG -16 -176 Vn_n
FLAG -816 -432 Vn_p
FLAG -816 -176 Vn_n
SYMBOL voltage -1120 -256 R0
WINDOW 123 0 0 Left 2
WINDOW 39 0 0 Left 2
SYMATTR InstName V1
SYMATTR Value {Vcm}
SYMBOL voltage -816 -416 M0
WINDOW 3 24 44 Left 2
WINDOW 123 24 72 Left 2
WINDOW 39 0 0 Left 2
SYMATTR Value PULSE(0 0.05)
SYMATTR Value2 AC 0.5
SYMATTR InstName V2
SYMBOL voltage -816 -288 M0
WINDOW 3 24 44 Left 2
WINDOW 123 24 72 Left 2
WINDOW 39 0 0 Left 2
SYMATTR Value PULSE(0 0.05)
SYMATTR Value2 AC 0.5
SYMATTR InstName V3
SYMBOL res -656 -544 R90
WINDOW 0 0 56 VBottom 2
WINDOW 3 32 56 VTop 2
SYMATTR InstName R1
SYMATTR Value 10Meg noiseless
SYMBOL res -496 -624 R90
WINDOW 0 0 56 VBottom 2
WINDOW 3 32 56 VTop 2
SYMATTR InstName R2
SYMATTR Value 100Meg noiseless
SYMBOL res -672 -96 R90
WINDOW 0 0 56 VBottom 2
WINDOW 3 32 56 VTop 2
SYMATTR InstName R3
SYMATTR Value 10Meg noiseless
SYMBOL res -512 -16 R90
WINDOW 0 0 56 VBottom 2
WINDOW 3 32 56 VTop 2
SYMATTR InstName R4
SYMATTR Value 100Meg noiseless
SYMBOL cap -208 -416 R0
WINDOW 3 51 41 Left 2
SYMATTR InstName C5
SYMATTR Value {Cload}
SYMBOL cap -208 -192 M180
WINDOW 0 24 56 Left 2
WINDOW 3 50 29 Left 2
SYMATTR InstName C6
SYMATTR Value {Cload}
SYMBOL voltage -928 -592 R0
WINDOW 123 0 0 Left 2
WINDOW 39 0 0 Left 2
SYMATTR InstName V4
SYMATTR Value 1.8
SYMBOL Amplifier_10x_comp_model -496 -304 R0
SYMATTR InstName X6
SYMBOL voltage -1168 -592 R0
WINDOW 123 0 0 Left 2
WINDOW 39 0 0 Left 2
SYMATTR InstName V5
SYMATTR Value 1.8
SYMBOL cap -528 -96 R90
WINDOW 0 0 32 VBottom 2
WINDOW 3 32 32 VTop 2
SYMATTR InstName C1
SYMATTR Value 0.1p
SYMBOL cap -528 -544 R90
WINDOW 0 0 32 VBottom 2
WINDOW 3 32 32 VTop 2
SYMATTR InstName C2
SYMATTR Value 0.1p
SYMBOL cap -672 -448 R90
WINDOW 0 0 32 VBottom 2
WINDOW 3 32 32 VTop 2
SYMATTR InstName C3
SYMATTR Value 10p
SYMBOL cap -688 -192 R90
WINDOW 0 0 32 VBottom 2
WINDOW 3 32 32 VTop 2
SYMATTR InstName C4
SYMATTR Value 10p
SYMBOL cap 80 -448 R90
WINDOW 0 0 32 VBottom 2
WINDOW 3 32 32 VTop 2
SYMATTR InstName C7
SYMATTR Value 10p
SYMBOL cap 224 -544 R90
WINDOW 0 0 32 VBottom 2
WINDOW 3 32 32 VTop 2
SYMATTR InstName C8
SYMATTR Value 0.1p
SYMBOL res 96 -544 R90
WINDOW 0 0 56 VBottom 2
WINDOW 3 32 56 VTop 2
SYMATTR InstName R5
SYMATTR Value 10Meg noiseless
SYMBOL res 256 -624 R90
WINDOW 0 0 56 VBottom 2
WINDOW 3 32 56 VTop 2
SYMATTR InstName R6
SYMATTR Value 100Meg noiseless
SYMBOL res 80 -96 R90
WINDOW 0 0 56 VBottom 2
WINDOW 3 32 56 VTop 2
SYMATTR InstName R7
SYMATTR Value 10Meg noiseless
SYMBOL res 240 -16 R90
WINDOW 0 0 56 VBottom 2
WINDOW 3 32 56 VTop 2
SYMATTR InstName R8
SYMATTR Value 100Meg noiseless
SYMBOL Amplifier_10x_comp_model 256 -304 R0
SYMATTR InstName X1
SYMBOL cap 64 -192 R90
WINDOW 0 0 32 VBottom 2
WINDOW 3 32 32 VTop 2
SYMATTR InstName C9
SYMATTR Value 10p
SYMBOL cap 224 -96 R90
WINDOW 0 0 32 VBottom 2
WINDOW 3 32 32 VTop 2
SYMATTR InstName C10
SYMATTR Value 0.1p
TEXT -1256 296 Left 2 !;noise V(Vout_p,Vout_n) V1 dec 100 100 100G
TEXT -1216 352 Left 2 !;tran 0 200ns 0
TEXT -1256 240 Left 2 !.lib opamp.sub
TEXT -1216 392 Left 2 !;op
TEXT -1216 424 Left 2 !.ac dec 100 100 100G
TEXT -1256 200 Left 2 !.lib 'C:\\Program Files (x86)\\LTC\\LTspiceIV\\lib\\cmp\\log018.l' TT
TEXT -1216 472 Left 2 !.param Cload=2p*m_fact Vcm=0.90
TEXT -832 552 Left 2 ;F(x) = 20*log10(abs(V(Vin_p,Vin_n)/1)+1n)
TEXT -1216 520 Left 2 !.param m_fact = 2
TEXT -1248 712 Left 2 ;.savebias DC_bias10x.txt internal time=10m
TEXT -1248 776 Left 2 ;.loadbias DC_bias10x.txt
TEXT -1248 672 Left 2 !.options srcsteps= 100
TEXT -1248 632 Left 2 !.options gmin=1e-12 abstol=1e-12 reltol=0.001
TEXT -840 472 Left 2 !.param Cin=10p Cfb=Cin/10
