Version 4
SHEET 1 1004 816
WIRE -592 -608 -640 -608
WIRE -464 -608 -512 -608
WIRE -752 -528 -784 -528
WIRE -640 -528 -640 -608
WIRE -640 -528 -672 -528
WIRE -592 -528 -640 -528
WIRE -464 -528 -464 -608
WIRE -464 -528 -528 -528
WIRE -352 -528 -464 -528
WIRE -1440 -496 -1472 -496
WIRE -1408 -496 -1440 -496
WIRE -1200 -496 -1232 -496
WIRE -1168 -496 -1200 -496
WIRE -1440 -464 -1440 -496
WIRE -1200 -464 -1200 -496
WIRE -784 -432 -784 -528
WIRE -784 -432 -816 -432
WIRE -736 -432 -784 -432
WIRE -640 -432 -640 -528
WIRE -640 -432 -672 -432
WIRE -816 -400 -816 -432
WIRE -640 -352 -640 -432
WIRE -576 -352 -640 -352
WIRE -544 -352 -576 -352
WIRE -352 -352 -352 -528
WIRE -336 -352 -352 -352
WIRE -224 -352 -336 -352
WIRE -192 -352 -224 -352
WIRE -960 -272 -1120 -272
WIRE -816 -272 -816 -320
WIRE -816 -272 -960 -272
WIRE -576 -256 -640 -256
WIRE -544 -256 -576 -256
WIRE -336 -256 -352 -256
WIRE -224 -256 -336 -256
WIRE -192 -256 -224 -256
WIRE -1120 -240 -1120 -272
WIRE -816 -176 -816 -192
WIRE -784 -176 -816 -176
WIRE -752 -176 -784 -176
WIRE -640 -176 -640 -256
WIRE -640 -176 -688 -176
WIRE -784 -80 -784 -176
WIRE -768 -80 -784 -80
WIRE -640 -80 -640 -176
WIRE -640 -80 -688 -80
WIRE -592 -80 -640 -80
WIRE -464 -80 -528 -80
WIRE -352 -80 -352 -256
WIRE -352 -80 -464 -80
WIRE -640 0 -640 -80
WIRE -608 0 -640 0
WIRE -464 0 -464 -80
WIRE -464 0 -528 0
FLAG -1120 -160 0
FLAG -960 -272 V_cm
FLAG -192 -416 0
FLAG -192 -192 0
FLAG -1200 -384 0
FLAG -1200 -496 Vdd_amp
FLAG -480 -384 Vdd_amp
FLAG -224 -256 Vout_p
FLAG -224 -352 Vout_n
FLAG -1440 -384 0
FLAG -1440 -496 Vdd_bias
FLAG -448 -384 Vdd_bias
FLAG -576 -352 Vin_p
FLAG -576 -256 Vin_n
SYMBOL cap -672 -448 R90
WINDOW 0 0 32 VBottom 2
WINDOW 3 32 32 VTop 2
SYMATTR InstName C1
SYMATTR Value {Cfb}
SYMBOL cap -528 -544 R90
WINDOW 0 0 32 VBottom 2
WINDOW 3 32 32 VTop 2
SYMATTR InstName C2
SYMATTR Value {Cfb}
SYMBOL cap -688 -160 M270
WINDOW 0 32 32 VTop 2
WINDOW 3 0 32 VBottom 2
SYMATTR InstName C3
SYMATTR Value {Cfb}
SYMBOL cap -528 -64 M270
WINDOW 0 32 32 VTop 2
WINDOW 3 0 32 VBottom 2
SYMATTR InstName C4
SYMATTR Value {Cfb}
SYMBOL voltage -1120 -256 R0
WINDOW 123 0 0 Left 2
WINDOW 39 0 0 Left 2
SYMATTR InstName V1
SYMATTR Value {Vcm}
SYMBOL voltage -816 -416 M0
WINDOW 3 24 44 Left 2
WINDOW 123 24 72 Left 2
WINDOW 39 0 0 Left 2
SYMATTR Value PULSE(0 0.5)
SYMATTR Value2 AC 0.5
SYMATTR InstName V2
SYMBOL voltage -816 -288 M0
WINDOW 3 24 44 Left 2
WINDOW 123 24 72 Left 2
WINDOW 39 0 0 Left 2
SYMATTR Value PULSE(0 0.5)
SYMATTR Value2 AC 0.5
SYMATTR InstName V3
SYMBOL res -656 -544 R90
WINDOW 0 0 56 VBottom 2
WINDOW 3 32 56 VTop 2
SYMATTR InstName R1
SYMATTR Value 1G noiseless
SYMBOL res -496 -624 R90
WINDOW 0 0 56 VBottom 2
WINDOW 3 32 56 VTop 2
SYMATTR InstName R2
SYMATTR Value 1G noiseless
SYMBOL res -672 -96 R90
WINDOW 0 0 56 VBottom 2
WINDOW 3 32 56 VTop 2
SYMATTR InstName R3
SYMATTR Value 1G noiseless
SYMBOL res -512 -16 R90
WINDOW 0 0 56 VBottom 2
WINDOW 3 32 56 VTop 2
SYMATTR InstName R4
SYMATTR Value 1G noiseless
SYMBOL cap -208 -416 R0
SYMATTR InstName C5
SYMATTR Value {Cload}
SYMBOL cap -208 -192 M180
WINDOW 0 24 56 Left 2
WINDOW 3 24 8 Left 2
SYMATTR InstName C6
SYMATTR Value {Cload}
SYMBOL voltage -1200 -480 R0
WINDOW 123 0 0 Left 2
WINDOW 39 0 0 Left 2
SYMATTR InstName V4
SYMATTR Value 1.8
SYMBOL voltage -1440 -480 R0
WINDOW 123 0 0 Left 2
WINDOW 39 0 0 Left 2
SYMATTR InstName V5
SYMATTR Value 1.8
SYMBOL Amplifier_1x_comp_model -480 -304 R0
SYMATTR InstName X1
TEXT -8 -480 Left 2 !.noise V(Vout_p,Vout_n) V1 dec 100 100 100G
TEXT 32 -424 Left 2 !;tran 100ns
TEXT -8 -536 Left 2 !.lib opamp.sub
TEXT 32 -384 Left 2 !;op
TEXT 32 -352 Left 2 !;ac dec 100 100 100G
TEXT -8 -576 Left 2 !.lib 'C:\\Program Files (x86)\\LTC\\LTspiceIV\\lib\\cmp\\log018.l' TT
TEXT 32 -304 Left 2 !.param Cload=1p Vcm=0.9
TEXT 416 -224 Left 2 ;F(x) = 20*log10(abs(V(Vin_p,Vin_n)/1)+1n)
TEXT 0 -64 Left 2 ;.savebias DC_bias10x.txt internal time=10m
TEXT 0 0 Left 2 ;.loadbias DC_bias10x.txt
TEXT 0 -104 Left 2 !.options srcsteps= 100
TEXT 0 -144 Left 2 !.options gmin=1e-12 abstol=1e-12 reltol=0.001
TEXT 40 -216 Left 2 !.param Cfb=0.8p
