Version 4
SHEET 1 3836 784
WIRE 1584 -992 832 -992
WIRE 352 -880 240 -880
WIRE 432 -880 352 -880
WIRE 496 -880 432 -880
WIRE 512 -880 496 -880
WIRE 1184 -880 880 -880
WIRE 1232 -880 1184 -880
WIRE 1376 -880 1232 -880
WIRE 1472 -880 1376 -880
WIRE 432 -832 432 -880
WIRE 432 -832 416 -832
WIRE 880 -832 880 -880
WIRE 896 -832 880 -832
WIRE 1184 -832 1184 -880
WIRE 1200 -832 1184 -832
WIRE 1472 -832 1472 -880
WIRE 1472 -832 1456 -832
WIRE 512 -816 480 -816
WIRE 560 -816 512 -816
WIRE 592 -816 560 -816
WIRE 672 -816 592 -816
WIRE 832 -816 832 -992
WIRE 960 -816 832 -816
WIRE 1072 -816 1056 -816
WIRE 1136 -816 1072 -816
WIRE 1584 -816 1584 -992
WIRE 1584 -816 1520 -816
WIRE 240 -800 240 -880
WIRE 240 -800 224 -800
WIRE 336 -784 288 -784
WIRE 416 -784 416 -832
WIRE 432 -784 416 -784
WIRE 896 -784 896 -832
WIRE 896 -784 880 -784
WIRE 1200 -784 1200 -832
WIRE 1200 -784 1184 -784
WIRE 1456 -784 1456 -832
WIRE 1472 -784 1456 -784
WIRE 224 -752 224 -800
WIRE 240 -752 224 -752
WIRE 880 -704 880 -736
WIRE 880 -704 832 -704
WIRE 896 -704 880 -704
WIRE 1184 -704 1184 -736
WIRE 1200 -704 1184 -704
WIRE 1472 -704 1472 -736
WIRE 1472 -704 1456 -704
WIRE 1504 -704 1472 -704
WIRE 432 -688 432 -736
WIRE 432 -688 416 -688
WIRE 880 -688 880 -704
WIRE 1184 -688 1184 -704
WIRE 1472 -688 1472 -704
WIRE 240 -672 240 -704
WIRE 336 -672 336 -784
WIRE 336 -672 240 -672
WIRE 480 -672 336 -672
WIRE 528 -672 480 -672
WIRE 656 -672 528 -672
WIRE 832 -672 656 -672
WIRE 1136 -672 832 -672
WIRE 1520 -672 1136 -672
WIRE 416 -640 416 -688
WIRE 432 -640 416 -640
WIRE 896 -640 896 -704
WIRE 896 -640 880 -640
WIRE 1200 -640 1200 -704
WIRE 1200 -640 1184 -640
WIRE 1456 -640 1456 -704
WIRE 1472 -640 1456 -640
WIRE 1184 -592 1088 -592
WIRE 1232 -592 1184 -592
WIRE 1248 -592 1232 -592
WIRE 432 -560 432 -592
WIRE 592 -560 592 -816
WIRE 592 -560 432 -560
WIRE 1472 -560 1472 -592
WIRE 880 -544 880 -592
WIRE 1088 -544 1088 -592
WIRE 1104 -544 1088 -544
WIRE 1248 -544 1248 -592
WIRE 1248 -544 1232 -544
WIRE 880 -512 880 -544
WIRE 960 -512 960 -816
WIRE 960 -512 880 -512
WIRE 240 -496 240 -672
WIRE 432 -496 432 -560
WIRE 1104 -496 1104 -544
WIRE 1104 -496 1088 -496
WIRE 1232 -496 1232 -544
WIRE 1248 -496 1232 -496
WIRE 1472 -496 1472 -560
WIRE 1536 -496 1472 -496
WIRE 1552 -496 1536 -496
WIRE 1568 -496 1552 -496
WIRE 1248 -416 1248 -448
WIRE 1088 -400 1088 -448
WIRE 432 -384 432 -416
WIRE 512 -384 432 -384
WIRE 880 -384 880 -512
WIRE 1472 -384 1472 -496
WIRE 432 -336 432 -384
WIRE 880 -336 880 -384
WIRE 1472 -336 1472 -384
WIRE 432 -288 416 -288
WIRE 896 -288 880 -288
WIRE 1472 -288 1456 -288
WIRE 240 -256 240 -416
WIRE 304 -256 240 -256
WIRE 480 -256 304 -256
WIRE 608 -256 480 -256
WIRE 752 -256 608 -256
WIRE 832 -256 752 -256
WIRE 1520 -256 832 -256
WIRE 416 -240 416 -288
WIRE 432 -240 416 -240
WIRE 896 -240 896 -288
WIRE 896 -240 880 -240
WIRE 1456 -240 1456 -288
WIRE 1472 -240 1456 -240
WIRE 880 -208 880 -240
WIRE 960 -208 880 -208
WIRE 1088 -208 1088 -400
WIRE 1088 -208 960 -208
WIRE 1248 -208 1248 -416
WIRE 1392 -208 1248 -208
WIRE 1472 -208 1472 -240
WIRE 1472 -208 1392 -208
WIRE 240 -192 240 -256
WIRE 432 -192 432 -240
WIRE 880 -192 880 -208
WIRE 1472 -192 1472 -208
WIRE 304 -112 304 -256
WIRE 304 -112 288 -112
WIRE 512 -112 512 -384
WIRE 512 -112 480 -112
WIRE 640 -112 512 -112
WIRE 832 -112 640 -112
WIRE 1168 -112 832 -112
WIRE 1520 -112 1168 -112
WIRE 240 -48 240 -96
WIRE 432 -48 432 -96
WIRE 432 -48 240 -48
WIRE 880 -48 880 -96
WIRE 880 -48 432 -48
WIRE 1104 -48 880 -48
WIRE 1472 -48 1472 -96
WIRE 1472 -48 1104 -48
WIRE 1104 -32 1104 -48
FLAG 880 -144 0
FLAG 880 -880 Vdd
FLAG 432 -144 0
FLAG 240 -144 0
FLAG 1472 -144 0
FLAG 1104 -32 0
FLAG 656 -608 0
FLAG 608 -192 0
FLAG 1568 -496 Vout
FLAG 1040 -528 Vin_p
FLAG 1296 -528 Vin_n
FLAG 672 -816 Vb_pcasc
FLAG 1072 -816 Vb_pcasc
FLAG 352 -880 Vdd_bias
FLAG 1232 -880 Vdd_amp
FLAG 496 -880 Vdd
FLAG 1552 -432 0
DATAFLAG 960 -208 "round($*10k)/10k"
DATAFLAG 880 -544 "round($*1k)/1k"
DATAFLAG 1392 -208 "round($*10k)/10k"
DATAFLAG 1376 -880 "round($*1k)/1k"
DATAFLAG 1472 -560 "round($*1k)/1k"
DATAFLAG 880 -384 "round(Id(x3:M11)*10000000)/10000000"
DATAFLAG 960 -816 "-Id(M5)"
DATAFLAG 1168 -112 ""
DATAFLAG 1088 -400 "round(-Id(x3:M4)*100Meg)/100Meg"
DATAFLAG 1472 -384 "round(Id(M7)*10000000)/10000000"
DATAFLAG 832 -704 "round($*1000)/1000"
DATAFLAG 1184 -704 "round($*1000)/1000"
DATAFLAG 1504 -704 "round($*1000)/1000"
DATAFLAG 752 -256 "round($*1k)/1k"
DATAFLAG 640 -112 "round($*1k)/1k"
DATAFLAG 528 -672 "round($*1k)/1k"
DATAFLAG 560 -816 "round($*1k)/1k"
DATAFLAG 1232 -592 "round($*1k)/1k"
DATAFLAG 1536 -496 "round($*1k)/1k"
DATAFLAG 1248 -416 "round(-Id(x3:M3)*1000Meg)/1000Meg"
SYMBOL nmos4 832 -336 R0
SYMATTR InstName M11
SYMATTR Value nch
SYMATTR Value2 l={Ln_casc} w={Wn_casc} m={Mn_casc}
SYMBOL current 432 -496 R0
WINDOW 123 0 0 Left 2
WINDOW 39 0 0 Left 2
SYMATTR InstName I1
SYMATTR Value 0.03m
SYMBOL current 240 -496 R0
WINDOW 123 0 0 Left 2
WINDOW 39 0 0 Left 2
WINDOW 3 25 75 Left 2
SYMATTR Value 0.23m
SYMATTR InstName I2
SYMBOL nmos4 1520 -192 M0
SYMATTR InstName M8
SYMATTR Value nch
SYMATTR Value2 l={Ln_casc} w={Wn_casc} m={Mn_casc_2x}
SYMBOL cap 640 -672 R0
SYMATTR InstName C11
SYMATTR Value 1000µ
SYMBOL cap 592 -256 R0
SYMATTR InstName C13
SYMATTR Value 1000µ
SYMBOL pmos4 1136 -736 M180
SYMATTR InstName M1
SYMATTR Value pch
SYMATTR Value2 l={Lp_casc} w={Wp_casc} m={Mp_tail}
SYMBOL pmos4 1040 -448 M180
SYMATTR InstName M4
SYMATTR Value pch
SYMATTR Value2 l={L_in} w={W_in} m={M_in}
SYMBOL cap 496 -880 R0
WINDOW 3 72 26 Left 2
SYMATTR Value 1000µ
SYMATTR InstName C2
SYMBOL pmos4 1296 -448 R180
SYMATTR InstName M3
SYMATTR Value pch
SYMATTR Value2 l={L_in} w={W_in} m={M_in}
SYMBOL cap 1536 -496 R0
SYMATTR InstName C1
SYMATTR Value 1p
SYMBOL pmos4 1136 -592 M180
SYMATTR InstName M2
SYMATTR Value pch
SYMATTR Value2 l={Lp_casc} w={Wp_casc} m={Mp_tail}
SYMBOL pmos4 480 -736 R180
SYMATTR InstName M13
SYMATTR Value pch
SYMATTR Value2 l={Lp_casc} w={Wp_casc} m={Mp_tail}
SYMBOL pmos4 480 -592 R180
SYMATTR InstName M14
SYMATTR Value pch
SYMATTR Value2 l={Lp_casc} w={Wp_casc} m={Mp_tail}
SYMBOL pmos4 288 -704 R180
SYMATTR InstName M15
SYMATTR Value pch
SYMATTR Value2 l={Lp_casc} w={Wp_casc} m={Mp_tail}
SYMBOL pmos4 832 -736 M180
SYMATTR InstName M5
SYMATTR Value pch
SYMATTR Value2 l={Lp_casc} w={Wp_casc} m={Mp_casc}
SYMBOL pmos4 1520 -592 R180
SYMATTR InstName M9
SYMATTR Value pch
SYMATTR Value2 l={Lp_casc} w={Wp_casc} m={Mp_casc}
SYMBOL pmos4 1520 -736 R180
SYMATTR InstName M6
SYMATTR Value pch
SYMATTR Value2 l={Lp_casc} w={Wp_casc} m={Mp_casc}
SYMBOL pmos4 832 -592 M180
SYMATTR InstName M10
SYMATTR Value pch
SYMATTR Value2 l={Lp_casc} w={Wp_casc} m={Mp_casc}
SYMBOL nmos4 1520 -336 M0
SYMATTR InstName M7
SYMATTR Value nch
SYMATTR Value2 l={Ln_casc} w={Wn_casc} m={Mn_casc}
SYMBOL nmos4 480 -336 M0
SYMATTR InstName M16
SYMATTR Value nch
SYMATTR Value2 l={Ln_casc} w={Wn_casc} m={Mn_casc}
SYMBOL nmos4 832 -192 R0
SYMATTR InstName M12
SYMATTR Value nch
SYMATTR Value2 l={Ln_casc} w={Wn_casc} m={Mn_casc_2x}
SYMBOL nmos4 480 -192 M0
SYMATTR InstName M17
SYMATTR Value nch
SYMATTR Value2 l={Ln_casc} w={Wn_casc} m={Mn_casc_2x}
SYMBOL nmos4 288 -192 M0
SYMATTR InstName M18
SYMATTR Value nch
SYMATTR Value2 l={Ln_casc} w={Wn_casc} m={Mn_casc_2x}
TEXT -200 -1024 Left 2 !.lib 'C:\\Program Files (x86)\\LTC\\LTspiceIV\\lib\\cmp\\log018.l' TT
TEXT -192 -976 Left 2 !.lib opamp.sub
TEXT -200 24 Left 2 !;tran 1ns
TEXT -184 -696 Left 2 !.ac oct 100 1 100G
TEXT 1736 -424 Left 2 !.param W_in=50u L_in=0.36u M_in=2
TEXT 1696 -376 Left 2 ;.step param Cc 0.5p 2p 0.1p
TEXT 1704 -288 Left 2 !.param M_size=2
TEXT 1696 -240 Left 2 !.param Wp_casc=7.9u Lp_casc=0.72u Mp_tail=1*M_size
TEXT 1696 -200 Left 2 !.param Mp_casc= 0.5*Mp_tail
TEXT 1696 -136 Left 2 !.param Wn_casc=1.5u Ln_casc=0.72u Mn_casc=1*M_size
TEXT 1696 -96 Left 2 !.param Mn_casc_2x = 2*Mn_casc
